# generated using pymatgen
data_La1.8Ce0.2Ru4
_symmetry_space_group_name_H-M   Fd-3m
_cell_length_a   5.46409128
_cell_length_b   5.46409128
_cell_length_c   5.46409128
_cell_angle_alpha   60.00000000
_cell_angle_beta   60.00000000
_cell_angle_gamma   60.00000000
_symmetry_Int_Tables_number   227
_chemical_formula_structural   La1.8Ce0.2Ru4
_chemical_formula_sum   'La1.8 Ce0.2 Ru4'
_cell_volume   115.35564175
_cell_formula_units_Z   1
loop_
 _symmetry_equiv_pos_site_id
 _symmetry_equiv_pos_as_xyz
  1  'x, y, z'
  2  '-y+3/4, -z+3/4, x+y+z+3/4'
  3  'z, -x-y-z, x'
  4  'x+y+z+3/4, -x+3/4, -y+3/4'
  5  'y, x, -x-y-z'
  6  '-z+3/4, -y+3/4, -x+3/4'
  7  '-x-y-z, z, y'
  8  '-x+3/4, x+y+z+3/4, -z+3/4'
  9  'z, x, y'
  10  'x+y+z+3/4, -y+3/4, -z+3/4'
  11  'x, z, -x-y-z'
  12  '-y+3/4, x+y+z+3/4, -x+3/4'
  13  '-x-y-z, y, x'
  14  '-x+3/4, -z+3/4, -y+3/4'
  15  'y, -x-y-z, z'
  16  '-z+3/4, -x+3/4, x+y+z+3/4'
  17  'y, z, x'
  18  '-z+3/4, x+y+z+3/4, -y+3/4'
  19  '-x-y-z, x, z'
  20  '-x+3/4, -y+3/4, x+y+z+3/4'
  21  'x, -x-y-z, y'
  22  '-y+3/4, -x+3/4, -z+3/4'
  23  'z, y, -x-y-z'
  24  'x+y+z+3/4, -z+3/4, -x+3/4'
  25  '-x+3/4, -y+3/4, -z+3/4'
  26  'y, z, -x-y-z'
  27  '-z+3/4, x+y+z+3/4, -x+3/4'
  28  '-x-y-z, x, y'
  29  '-y+3/4, -x+3/4, x+y+z+3/4'
  30  'z, y, x'
  31  'x+y+z+3/4, -z+3/4, -y+3/4'
  32  'x, -x-y-z, z'
  33  '-z+3/4, -x+3/4, -y+3/4'
  34  '-x-y-z, y, z'
  35  '-x+3/4, -z+3/4, x+y+z+3/4'
  36  'y, -x-y-z, x'
  37  'x+y+z+3/4, -y+3/4, -x+3/4'
  38  'x, z, y'
  39  '-y+3/4, x+y+z+3/4, -z+3/4'
  40  'z, x, -x-y-z'
  41  '-y+3/4, -z+3/4, -x+3/4'
  42  'z, -x-y-z, y'
  43  'x+y+z+3/4, -x+3/4, -z+3/4'
  44  'x, y, -x-y-z'
  45  '-x+3/4, x+y+z+3/4, -y+3/4'
  46  'y, x, z'
  47  '-z+3/4, -y+3/4, x+y+z+3/4'
  48  '-x-y-z, z, x'
loop_
 _atom_site_type_symbol
 _atom_site_label
 _atom_site_symmetry_multiplicity
 _atom_site_fract_x
 _atom_site_fract_y
 _atom_site_fract_z
 _atom_site_occupancy
  La  La0  2  0.25000000  0.25000000  0.25000000  0.9
  Ce  Ce1  2  0.25000000  0.25000000  0.25000000  0.1
  Ru  Ru2  4  0.37500000  0.87500000  0.87500000  1.0
